
#======================================================================
# CRYSTAL DATA
#----------------------------------------------------------------------
data_VESTA_phase_1

_chemical_name_common                  'CsPbI3-black'
_cell_length_a                         8.856100
_cell_length_b                         8.576600
_cell_length_c                         12.472200
_cell_angle_alpha                      90.000000
_cell_angle_beta                       90.000000
_cell_angle_gamma                      90.000000
_cell_volume                           947.328832
_space_group_name_H-M_alt              'P n a m'
_space_group_IT_number                 62

loop_
_space_group_symop_operation_xyz
   'x, y, z'
   '-x, -y, -z'
   '-x+1/2, y+1/2, -z'
   'x+1/2, -y+1/2, z'
   '-x, -y, z+1/2'
   'x, y, -z+1/2'
   'x+1/2, -y+1/2, -z+1/2'
   '-x+1/2, y+1/2, z+1/2'

loop_
   _atom_site_type_symbol
   _atom_site_label
   _atom_site_fract_x
   _atom_site_fract_y
   _atom_site_fract_z
   _atom_site_occupancy
   Cs  Cs1  0.459950     0.505090     0.250000  1
   Pb  Pb1  0.000000     0.500000     0.000000  1
   I   I1   0.001130     0.562020     0.250000  1
   I   I2   0.305380     0.697310    -0.035770  1
